%mem=4096mb
%NProcShared=10
# opt(MaxC=100) b3lyp/6-31+g

Title Card Required

0 1
 O                 -2.87787354   -1.04977964   -6.36987702
 H                 -1.91787354   -1.04977964   -6.36987702
 H                 -3.19832812   -0.14484381   -6.36987702
 O                 -3.32122893   -2.88457671   -5.60315780
 H                 -2.36122893   -2.88457671   -5.60315780
 H                 -3.64168352   -1.97964088   -5.60315780
 O                 -0.68218715   -2.31919295   -5.66334328
 H                  0.27781285   -2.31919295   -5.66334328
 H                 -1.00264173   -1.41425712   -5.66334328




