%mem=5120mb
%NProcShared=16
# b3lyp/genecp opt(MaxC=80) scfcyc=256

Coal_kick_v2_Trial # 53

0 1
C   -2.199854   -2.153170   -3.358445
H   -2.590172   -1.854507   -2.377236
O   -2.868493   -2.440974   -4.311234
O   -0.853980   -2.147396   -3.330077
O   -3.556081   -4.856281   -4.019334
H   -4.354568   -4.320884   -4.055490
H   -3.012454   -4.543795   -4.748966
O    3.064615   -1.356374    1.428239
H    2.236650   -0.956015    1.710598
H    3.752720   -0.814342    1.826049
O    0.690563   -2.381351   -1.684648
H    1.019311   -1.524862   -1.974287
H    1.420757   -2.990973   -1.828586
O   -0.967774   -3.816223   -0.733632
H   -1.897528   -3.997830   -0.901310
H   -0.814102   -4.112384    0.168706
O    3.161161   -3.735566   -0.241237
H    3.115565   -2.764469   -0.124593
H    3.949090   -3.952478   -0.788094
H    2.385110   -4.048482   -0.710542

C O 0
6-31+G*
****
H 0
3-21g
****



