%mem=5120mb
%NProcShared=16
# b3lyp/genecp opt(MaxC=80) scfcyc=256

Coal_kick_v2_Trial # 51 - recalc 2 - recalc 3

0 1
C    0.054550  -2.248446  0.153216
H    0.292956  -3.323264  0.221724
O    -1.170351  -2.042925  -0.241343
O    0.890003  -1.386992  0.432604
O    -4.430365  1.085228  0.116242
H    -4.921823  0.487419  0.704619
H    -5.003694  1.251227  -0.651256
O    3.508893  -0.477752  -0.127257
H    2.670995  -0.940586  0.100237
H    3.837450  -0.889478  -0.943388
O    2.739024  2.187059  -0.330980
H    3.287712  2.746006  0.243212
H    3.121536  1.275252  -0.284725
O    0.253689  1.458717  0.724784
H    0.548189  0.535768  0.867543
H    1.033832  1.897743  0.305086
O    -1.790723  0.404121  -0.645858
H    -1.411014  -1.029311  -0.375851
H    -1.105464  0.987730  -0.209319
H    -2.679332  0.672511  -0.322714

C O 0
6-31+G*
****
H 0
3-21g
****



