%mem=5120mb
%NProcShared=16
# b3lyp/genecp opt(MaxC=80) scfcyc=256

Coal_kick_v2_Trial # 59

0 1
C    3.459725    4.001804    1.707530
H    4.512663    4.065426    1.404888
O    2.543373    4.527908    1.140759
O    3.352737    3.242081    2.813691
O    4.062815    1.091873    2.873004
H    3.189083    1.393180    2.605899
H    3.970896    0.848572    3.799230
O    5.842210    2.905443    4.206876
H    5.335404    3.013307    5.017464
H    5.186248    2.879710    3.503603
O    1.034342    4.263870   -0.812956
H    1.956662    4.529578   -0.747648
H    0.601879    4.977849   -1.291234
O    5.470399   -0.151680    1.113212
H    4.801178   -0.354255    1.774004
H    4.978093    0.034585    0.307930
O    1.426411    6.777523    2.254886
H    0.462305    6.790173    2.084437
H    1.708621    5.848503    2.410496
H    1.628298    7.280343    3.046613

C O 0
6-31+G*
****
H 0
3-21g
****



