%mem=5120mb
%NProcShared=16
# b3lyp/genecp opt(MaxC=80) scfcyc=256

Coal_kick_v2_Trial # 55 - recalc 0

0 1
C    -3.309074  -0.353793  0.307371
H    -3.874605  0.537155  0.641300
O    -3.705207  -1.484451  0.443270
O    -2.137036  -0.052906  -0.275310
O    0.417247  -1.256364  -0.259820
H    0.473718  -1.465582  0.688193
H    -0.539983  -1.076508  -0.418631
O    3.472177  0.640672  0.990759
H    3.898661  0.585624  1.859929
H    3.576385  -0.231471  0.546177
O    1.316411  1.491679  -0.536553
H    2.087746  1.528519  0.070637
H    1.111708  0.530978  -0.584391
O    3.141563  -1.731063  -0.444986
H    3.605039  -2.415471  -0.952696
H    2.194702  -1.770700  -0.694351
O    -1.171556  2.371014  -0.140432
H    -1.263927  2.990521  -0.882216
H    -0.191556  2.144618  -0.092827
H    -1.892242  0.936431  -0.240778

C O 0
6-31+G*
****
H 0
3-21g
****



