%mem=5120mb
%NProcShared=16
# b3lyp/genecp opt(MaxC=80) scfcyc=256

Coal_kick_v2_Trial # 52

0 1
C   -0.349092   -0.131719    0.484008
H   -0.255324    0.158013    1.538323
O   -0.947223    0.484438   -0.352835
O    0.310507   -1.285989    0.272327
O   -3.873662   -2.837758    2.109327
H   -4.264421   -3.685567    2.341850
H   -3.957070   -2.298465    2.901631
O   -1.590560    0.662030    3.694502
H   -2.546484    0.604414    3.786320
H   -1.438005    0.807374    2.755810
O   -1.928024    2.584294    1.476711
H   -1.957696    1.665351    1.193507
H   -1.185535    2.634007    2.086448
O    0.358582    2.653590    0.595692
H   -0.519788    2.557980    0.215082
H    0.434729    1.935919    1.231845
O   -3.220626   -1.164206    0.635062
H   -2.389152   -1.010610    0.141327
H   -3.980993   -1.013637    0.029994
H   -3.295214   -0.538734    1.358692

C O 0
6-31+G*
****
H 0
3-21g
****



